CemigDFeeders/IIIU12/IIIU12CargaBT_Dez.dss
new load.3000082315M1 bus1=RML1051649147.2.3.0,Phases=2,kv=0.22,kW=1.36068,pf=0.92,Vminpu=0.92,Vmaxpu=1.5,model=1,daily=COM2_1,status=variable
new load.3000082316M1 bus1=RML1051649140.1.2.3.0,Phases=3,kv=0.22,kW=0.70542,pf=0.92,Vminpu=0.92,Vmaxpu=1.5,model=1,daily=COM2_1,status=variable
new load.3000082318M1 bus1=RML1051649133.1.2.3.0,Phases=3,kv=0.22,kW=7.15576,pf=0.92,Vminpu=0.92,Vmaxpu=1.5,model=1,daily=COM4_3,status=variable
new load.3000082319M1 bus1=RML1051489141.2.3.0,Phases=2,kv=0.22,kW=0.65848,pf=0.92,Vminpu=0.92,Vmaxpu=1.5,model=1,daily=RES2_2,status=variable
new load.3000082321M1 bus1=RML1051489155.3.0,Phases=1,kv=0.127,kW=0.95908,pf=0.92,Vminpu=0.92,Vmaxpu=1.5,model=1,daily=RES2_2,status=variable
new load.3000082322M1 bus1=RML1051489190.1.2.3.0,Phases=3,kv=0.22,kW=0.98814,pf=0.92,Vminpu=0.92,Vmaxpu=1.5,model=1,daily=RES1_1,status=variable
new load.3000082323M1 bus1=RML1051489162.1.2.3.0,Phases=3,kv=0.22,kW=0.75868,pf=0.92,Vminpu=0.92,Vmaxpu=1.5,model=1,daily=RES2_2,status=variable
new load.3000082324M1 bus1=RML1051489197.1.2.3.0,Phases=3,kv=0.22,kW=0.96712,pf=0.92,Vminpu=0.92,Vmaxpu=1.5,model=1,daily=RES1_1,status=variable
new load.3000082325M1 bus1=RML1051489834.1.2.3.0,Phases=3,kv=0.22,kW=3.18098,pf=0.92,Vminpu=0.92,Vmaxpu=1.5,model=1,daily=RES4_3,status=variable
new load.3000082326M1 bus1=RML1051489827.3.0,Phases=1,kv=0.127,kW=2.7079,pf=0.92,Vminpu=0.92,Vmaxpu=1.5,model=1,daily=RES3_2,status=variable
new load.3000082328M1 bus1=RML1051489841.1.2.3.0,Phases=3,kv=0.22,kW=0.10882,pf=0.92,Vminpu=0.92,Vmaxpu=1.5,model=1,daily=COM1_4,status=variable
new load.3000082329M1 bus1=RML1051489806.1.2.0,Phases=2,kv=0.22,kW=1.11654,pf=0.92,Vminpu=0.92,Vmaxpu=1.5,model=1,daily=RES2_2,status=variable
new load.3000082330M1 bus1=RML1051489820.2.0,Phases=1,kv=0.127,kW=0.3006,pf=0.92,Vminpu=0.92,Vmaxpu=1.5,model=1,daily=RES2_2,status=variable
new load.3000082332M1 bus1=RML1051650428.1.2.0,Phases=2,kv=0.22,kW=2.6733,pf=0.92,Vminpu=0.92,Vmaxpu=1.5,model=1,daily=RES4_3,status=variable
new load.3000082333M1 bus1=RML1051650351.1.2.3.0,Phases=3,kv=0.22,kW=3.25238,pf=0.92,Vminpu=0.92,Vmaxpu=1.5,model=1,daily=RES4_3,status=variable
new load.3000082334M1 bus1=RML1051650365.2.3.0,Phases=2,kv=0.22,kW=2.10528,pf=0.92,Vminpu=0.92,Vmaxpu=1.5,model=1,daily=RES3_2,status=variable
new load.3000082336M1 bus1=RML1051650323.1.2.3.0,Phases=3,kv=0.22,kW=0.1787,pf=0.92,Vminpu=0.92,Vmaxpu=1.5,model=1,daily=RES1_1,status=variable
new load.3000082337M1 bus1=RML1051650302.3.0,Phases=1,kv=0.127,kW=0.4528,pf=0.92,Vminpu=0.92,Vmaxpu=1.5,model=1,daily=COM1_4,status=variable
new load.3000082340M1 bus1=RML1051650379.1.2.3.0,Phases=3,kv=0.22,kW=0.88302,pf=0.92,Vminpu=0.92,Vmaxpu=1.5,model=1,daily=RES1_1,status=variable
new load.3000082341M1 bus1=RML1059270416.3.0,Phases=1,kv=0.127,kW=1.74526,pf=0.92,Vminpu=0.92,Vmaxpu=1.5,model=1,daily=RES3_2,status=variable
new load.3000082342M1 bus1=RML1051650358.1.2.3.0,Phases=3,kv=0.22,kW=2.16006,pf=0.92,Vminpu=0.92,Vmaxpu=1.5,model=1,daily=RES3_2,status=variable
new load.3000082343M1 bus1=RML1051650414.2.3.0,Phases=2,kv=0.22,kW=1.38526,pf=0.92,Vminpu=0.92,Vmaxpu=1.5,model=1,daily=RES3_2,status=variable
new load.3000082344M1 bus1=RML1051650421.2.3.0,Phases=2,kv=0.22,kW=0.08162,pf=0.92,Vminpu=0.92,Vmaxpu=1.5,model=1,daily=COM1_4,status=variable
new load.3000082345M1 bus1=RML1051650435.1.2.3.0,Phases=3,kv=0.22,kW=1.43864,pf=0.92,Vminpu=0.92,Vmaxpu=1.5,model=1,daily=RES2_2,status=variable
new load.3000082346M1 bus1=RML1051489813.1.2.3.0,Phases=3,kv=0.22,kW=2.44326,pf=0.92,Vminpu=0.92,Vmaxpu=1.5,model=1,daily=RES4_3,status=variable
new load.3000082348M1 bus1=RML1051489883.2.3.0,Phases=2,kv=0.22,kW=1.65918,pf=0.92,Vminpu=0.92,Vmaxpu=1.5,model=1,daily=RES3_2,status=variable
new load.3000082349M1 bus1=RML1051489946.1.3.0,Phases=2,kv=0.22,kW=2.32426,pf=0.92,Vminpu=0.92,Vmaxpu=1.5,model=1,daily=RES4_3,status=variable
new load.3000082350M1 bus1=RML1051489932.1.2.3.0,Phases=3,kv=0.22,kW=1.01634,pf=0.92,Vminpu=0.92,Vmaxpu=1.5,model=1,daily=RES2_2,status=variable
new load.3000082351M1 bus1=RML1051489918.3.0,Phases=1,kv=0.127,kW=0.07384,pf=0.92,Vminpu=0.92,Vmaxpu=1.5,model=1,daily=COM1_4,status=variable
new load.3000082352M1 bus1=RML1051492403.1.2.3.0,Phases=3,kv=0.22,kW=3.1334,pf=0.92,Vminpu=0.92,Vmaxpu=1.5,model=1,daily=RES4_3,status=variable
new load.3000082353M1 bus1=RML1051492431.1.2.3.0,Phases=3,kv=0.22,kW=2.51802,pf=0.92,Vminpu=0.92,Vmaxpu=1.5,model=1,daily=RES5_3,status=variable
new load.3000082354M1 bus1=RML1051492438.1.2.3.0,Phases=3,kv=0.22,kW=1.08792,pf=0.92,Vminpu=0.92,Vmaxpu=1.5,model=1,daily=RES2_2,status=variable
new load.3000082355M1 bus1=RML1051492487.2.0,Phases=1,kv=0.127,kW=1.25254,pf=0.92,Vminpu=0.92,Vmaxpu=1.5,model=1,daily=RES2_2,status=variable
new load.3000082356M1 bus1=RML1051492480.1.0,Phases=1,kv=0.127,kW=1.72178,pf=0.92,Vminpu=0.92,Vmaxpu=1.5,model=1,daily=RES3_2,status=variable
new load.3000082357M1 bus1=RML1051492459.1.3.0,Phases=2,kv=0.22,kW=0.9734,pf=0.92,Vminpu=0.92,Vmaxpu=1.5,model=1,daily=RES2_2,status=variable
new load.3000082358M1 bus1=RML1051492550.1.0,Phases=1,kv=0.127,kW=0.6227,pf=0.92,Vminpu=0.92,Vmaxpu=1.5,model=1,daily=RES2_2,status=variable
new load.3000082359M1 bus1=RML1058285866.1.2.3.0,Phases=3,kv=0.22,kW=0.00388,pf=0.92,Vminpu=0.92,Vmaxpu=1.5,model=1,daily=COM1_4,status=variable
new load.3000082360M1 bus1=RML1051492585.1.2.3.0,Phases=3,kv=0.22,kW=1.41142,pf=0.92,Vminpu=0.92,Vmaxpu=1.5,model=1,daily=RES5_3,status=variable
new load.3000082361M1 bus1=RML1051492592.2.3.0,Phases=2,kv=0.22,kW=0.88752,pf=0.92,Vminpu=0.92,Vmaxpu=1.5,model=1,daily=RES2_2,status=variable
new load.3000082362M1 bus1=RML1051492564.2.0,Phases=1,kv=0.127,kW=0.79446,pf=0.92,Vminpu=0.92,Vmaxpu=1.5,model=1,daily=RES2_2,status=variable
new load.3000082363M1 bus1=RML1051492466.1.0,Phases=1,kv=0.127,kW=1.01634,pf=0.92,Vminpu=0.92,Vmaxpu=1.5,model=1,daily=RES2_2,status=variable
new load.3000082364M1 bus1=RML1051492473.1.2.0,Phases=2,kv=0.22,kW=0.80878,pf=0.92,Vminpu=0.92,Vmaxpu=1.5,model=1,daily=RES2_2,status=variable
new load.3000082365M1 bus1=RML1051492494.3.0,Phases=1,kv=0.127,kW=0.06308,pf=0.92,Vminpu=0.92,Vmaxpu=1.5,model=1,daily=RES1_1,status=variable
new load.3000082366M1 bus1=RML1051492501.3.0,Phases=1,kv=0.127,kW=0.85888,pf=0.92,Vminpu=0.92,Vmaxpu=1.5,model=1,daily=RES2_2,status=variable
new load.3000082367M1 bus1=RML1051492424.3.0,Phases=1,kv=0.127,kW=0.80878,pf=0.92,Vminpu=0.92,Vmaxpu=1.5,model=1,daily=RES2_2,status=variable
new load.3000082368M1 bus1=RML1051492417.2.0,Phases=1,kv=0.127,kW=0.6374,pf=0.92,Vminpu=0.92,Vmaxpu=1.5,model=1,daily=COM1_4,status=variable
new load.3000082369M1 bus1=RML1051492410.1.2.3.0,Phases=3,kv=0.22,kW=2.0818,pf=0.92,Vminpu=0.92,Vmaxpu=1.5,model=1,daily=RES3_2,status=variable
new load.3000082370M1 bus1=RML1051492396.1.2.3.0,Phases=3,kv=0.22,kW=1.2945,pf=0.92,Vminpu=0.92,Vmaxpu=1.5,model=1,daily=RES5_3,status=variable
new load.3000082371M1 bus1=RML1051489939.1.2.0,Phases=2,kv=0.22,kW=2.91922,pf=0.92,Vminpu=0.92,Vmaxpu=1.5,model=1,daily=RES4_3,status=variable
new load.3000082373M1 bus1=RML1051489953.1.2.0,Phases=2,kv=0.22,kW=0.02102,pf=0.92,Vminpu=0.92,Vmaxpu=1.5,model=1,daily=RES1_1,status=variable
new load.3000082374M1 bus1=RML1051489890.1.2.3.0,Phases=3,kv=0.22,kW=14.38998,pf=0.92,Vminpu=0.92,Vmaxpu=1.5,model=1,daily=COM4_3,status=variable
new load.3000082376M1 bus1=RML1051489911.2.3.0,Phases=2,kv=0.22,kW=0.84456,pf=0.92,Vminpu=0.92,Vmaxpu=1.5,model=1,daily=RES2_2,status=variable
new load.3000082377M1 bus1=RML1051489967.1.2.3.0,Phases=3,kv=0.22,kW=3.59348,pf=0.92,Vminpu=0.92,Vmaxpu=1.5,model=1,daily=RES4_3,status=variable
new load.3000082379M1 bus1=RML1051492508.1.3.0,Phases=2,kv=0.22,kW=1.25254,pf=0.92,Vminpu=0.92,Vmaxpu=1.5,model=1,daily=RES2_2,status=variable
new load.3000082380M1 bus1=RML1051492529.1.0,Phases=1,kv=0.127,kW=0.1787,pf=0.92,Vminpu=0.92,Vmaxpu=1.5,model=1,daily=RES1_1,status=variable
new load.3000082381M1 bus1=RML1051492536.2.0,Phases=1,kv=0.127,kW=1.58092,pf=0.92,Vminpu=0.92,Vmaxpu=1.5,model=1,daily=RES3_2,status=variable
new load.3000082382M1 bus1=RML1051492543.1.2.3.0,Phases=3,kv=0.22,kW=0.75868,pf=0.92,Vminpu=0.92,Vmaxpu=1.5,model=1,daily=RES2_2,status=variable
new load.3000082383M1 bus1=RML1051491122.1.0,Phases=1,kv=0.127,kW=0.44152,pf=0.92,Vminpu=0.92,Vmaxpu=1.5,model=1,daily=RES1_1,status=variable
new load.3000082384M1 bus1=RML1051491129.2.0,Phases=1,kv=0.127,kW=0.30776,pf=0.92,Vminpu=0.92,Vmaxpu=1.5,model=1,daily=RES2_2,status=variable
new load.3000082385M1 bus1=RML1051491108.1.2.3.0,Phases=3,kv=0.22,kW=0.06442,pf=0.92,Vminpu=0.92,Vmaxpu=1.5,model=1,daily=IND1_3,status=variable
new load.3000082386M1 bus1=RML1051491080.1.2.3.0,Phases=3,kv=0.22,kW=3.81882,pf=0.92,Vminpu=0.92,Vmaxpu=1.5,model=1,daily=COM3_2,status=variable
new load.3000082387M1 bus1=RML1051491087.1.0,Phases=1,kv=0.127,kW=2.66878,pf=0.92,Vminpu=0.92,Vmaxpu=1.5,model=1,daily=RES3_2,status=variable
new load.3000082388M1 bus1=RML1051491360.1.0,Phases=1,kv=0.127,kW=1.08076,pf=0.92,Vminpu=0.92,Vmaxpu=1.5,model=1,daily=RES2_2,status=variable
new load.3000082389M1 bus1=RML1051491332.2.0,Phases=1,kv=0.127,kW=1.59656,pf=0.92,Vminpu=0.92,Vmaxpu=1.5,model=1,daily=RES3_2,status=variable
new load.3000082390M1 bus1=RML1051491325.1.2.0,Phases=2,kv=0.22,kW=1.05214,pf=0.92,Vminpu=0.92,Vmaxpu=1.5,model=1,daily=RES2_2,status=variable
new load.3000082391M1 bus1=RML1051492774.3.0,Phases=1,kv=0.127,kW=1.25254,pf=0.92,Vminpu=0.92,Vmaxpu=1.5,model=1,daily=RES2_2,status=variable
new load.3000082392M1 bus1=RML1051492760.3.0,Phases=1,kv=0.127,kW=1.51048,pf=0.92,Vminpu=0.92,Vmaxpu=1.5,model=1,daily=RES3_2,status=variable
new load.3000082393M1 bus1=RML1051492837.1.0,Phases=1,kv=0.127,kW=1.2096,pf=0.92,Vminpu=0.92,Vmaxpu=1.5,model=1,daily=RES2_2,status=variable
new load.3000082394M1 bus1=RML1051492879.1.2.3.0,Phases=3,kv=0.22,kW=0.431,pf=0.92,Vminpu=0.92,Vmaxpu=1.5,model=1,daily=RES1_1,status=variable
new load.3000082395M1 bus1=RML1051492823.1.0,Phases=1,kv=0.127,kW=0.76584,pf=0.92,Vminpu=0.92,Vmaxpu=1.5,model=1,daily=RES2_2,status=variable
new load.3000082396M1 bus1=RML1051492830.2.0,Phases=1,kv=0.127,kW=1.56746,pf=0.92,Vminpu=0.92,Vmaxpu=1.5,model=1,daily=RES2_2,status=variable
new load.3000082398M1 bus1=RML1051493061.2.0,Phases=1,kv=0.127,kW=2.16006,pf=0.92,Vminpu=0.92,Vmaxpu=1.5,model=1,daily=RES3_2,status=variable
new load.3000082399M1 bus1=RML1051493068.1.2.0,Phases=2,kv=0.22,kW=0.80878,pf=0.92,Vminpu=0.92,Vmaxpu=1.5,model=1,daily=RES2_2,status=variable
new load.3000082400M1 bus1=RML1060849239.1.2.0,Phases=2,kv=0.22,kW=1.18812,pf=0.92,Vminpu=0.92,Vmaxpu=1.5,model=1,daily=RES2_2,status=variable
new load.3000082401M1 bus1=RML1051492956.3.0,Phases=1,kv=0.127,kW=1.10224,pf=0.92,Vminpu=0.92,Vmaxpu=1.5,model=1,daily=RES2_2,status=variable
new load.3000082402M1 bus1=RML1051492977.3.0,Phases=1,kv=0.127,kW=0.9233,pf=0.92,Vminpu=0.92,Vmaxpu=1.5,model=1,daily=RES2_2,status=variable
new load.3000082403M1 bus1=RML1051492970.2.0,Phases=1,kv=0.127,kW=0.91614,pf=0.92,Vminpu=0.92,Vmaxpu=1.5,model=1,daily=RES2_2,status=variable
new load.3000082404M1 bus1=RML1051492963.1.2.0,Phases=2,kv=0.22,kW=0.93558,pf=0.92,Vminpu=0.92,Vmaxpu=1.5,model=1,daily=RES1_1,status=variable
new load.3000082405M1 bus1=RML1051492921.1.0,Phases=1,kv=0.127,kW=1.28832,pf=0.92,Vminpu=0.92,Vmaxpu=1.5,model=1,daily=RES2_2,status=variable
new load.3000082406M1 bus1=RML1051492802.1.2.0,Phases=2,kv=0.22,kW=1.2597,pf=0.92,Vminpu=0.92,Vmaxpu=1.5,model=1,daily=RES2_2,status=variable
new load.3000082407M1 bus1=RML1051492809.1.2.0,Phases=2,kv=0.22,kW=0.7229,pf=0.92,Vminpu=0.92,Vmaxpu=1.5,model=1,daily=RES2_2,status=variable
new load.3000082408M1 bus1=RML1051491759.2.0,Phases=1,kv=0.127,kW=0.32208,pf=0.92,Vminpu=0.92,Vmaxpu=1.5,model=1,daily=RES2_2,status=variable
new load.3000082409M1 bus1=RML1051491752.2.3.0,Phases=2,kv=0.22,kW=1.39568,pf=0.92,Vminpu=0.92,Vmaxpu=1.5,model=1,daily=RES2_2,status=variable
new load.3000082411M1 bus1=RML1051491829.1.0,Phases=1,kv=0.127,kW=0.90898,pf=0.92,Vminpu=0.92,Vmaxpu=1.5,model=1,daily=RES2_2,status=variable
new load.3000082413M1 bus1=RML1051491843.1.0,Phases=1,kv=0.127,kW=0.54396,pf=0.92,Vminpu=0.92,Vmaxpu=1.5,model=1,daily=RES2_2,status=variable
new load.3000082414M1 bus1=RML1051491850.1.0,Phases=1,kv=0.127,kW=0.76584,pf=0.92,Vminpu=0.92,Vmaxpu=1.5,model=1,daily=RES2_2,status=variable
new load.3000082415M1 bus1=RML1051491913.2.0,Phases=1,kv=0.127,kW=0.10512,pf=0.92,Vminpu=0.92,Vmaxpu=1.5,model=1,daily=RES1_1,status=variable
new load.3000082416M1 bus1=RML1051491920.2.0,Phases=1,kv=0.127,kW=1.06644,pf=0.92,Vminpu=0.92,Vmaxpu=1.5,model=1,daily=RES2_2,status=variable
new load.3000082417M1 bus1=RML1051491927.1.0,Phases=1,kv=0.127,kW=0.78016,pf=0.92,Vminpu=0.92,Vmaxpu=1.5,model=1,daily=RES2_2,status=variable
new load.3000082418M1 bus1=RML1051491934.2.0,Phases=1,kv=0.127,kW=0.6227,pf=0.92,Vminpu=0.92,Vmaxpu=1.5,model=1,daily=RES2_2,status=variable
new load.3000082419M1 bus1=RML1051491997.1.2.0,Phases=2,kv=0.22,kW=0.96624,pf=0.92,Vminpu=0.92,Vmaxpu=1.5,model=1,daily=RES2_2,status=variable
new load.3000082420M1 bus1=RML1051491990.1.2.0,Phases=2,kv=0.22,kW=0.66564,pf=0.92,Vminpu=0.92,Vmaxpu=1.5,model=1,daily=RES2_2,status=variable
new load.3000082421M1 bus1=RML1051491983.3.0,Phases=1,kv=0.127,kW=0.6871,pf=0.92,Vminpu=0.92,Vmaxpu=1.5,model=1,daily=RES2_2,status=variable
new load.3000082422M1 bus1=RML1051491976.1.2.3.0,Phases=3,kv=0.22,kW=0.6728,pf=0.92,Vminpu=0.92,Vmaxpu=1.5,model=1,daily=RES2_2,status=variable
new load.3000082423M1 bus1=RML1051491941.3.0,Phases=1,kv=0.127,kW=1.28832,pf=0.92,Vminpu=0.92,Vmaxpu=1.5,model=1,daily=RES2_2,status=variable
new load.3000082424M1 bus1=RML1051491955.3.0,Phases=1,kv=0.127,kW=0.88036,pf=0.92,Vminpu=0.92,Vmaxpu=1.5,model=1,daily=RES2_2,status=variable
new load.3000082425M1 bus1=RML1051491857.3.0,Phases=1,kv=0.127,kW=1.72178,pf=0.92,Vminpu=0.92,Vmaxpu=1.5,model=1,daily=RES3_2,status=variable
new load.3000082426M1 bus1=RML1051491871.3.0,Phases=1,kv=0.127,kW=0.81996,pf=0.92,Vminpu=0.92,Vmaxpu=1.5,model=1,daily=RES1_1,status=variable
new load.3000082427M1 bus1=RML1051491885.1.0,Phases=1,kv=0.127,kW=0.5151,pf=0.92,Vminpu=0.92,Vmaxpu=1.5,model=1,daily=RES1_1,status=variable
new load.3000082428M1 bus1=RML1051491899.1.0,Phases=1,kv=0.127,kW=1.00204,pf=0.92,Vminpu=0.92,Vmaxpu=1.5,model=1,daily=RES2_2,status=variable
new load.3000082429M1 bus1=RML1051491808.1.0,Phases=1,kv=0.127,kW=0.93762,pf=0.92,Vminpu=0.92,Vmaxpu=1.5,model=1,daily=RES2_2,status=variable
new load.3000082430M1 bus1=RML1051491794.1.0,Phases=1,kv=0.127,kW=0.83026,pf=0.92,Vminpu=0.92,Vmaxpu=1.5,model=1,daily=RES2_2,status=variable
new load.3000082431M1 bus1=RML1051491822.1.3.0,Phases=2,kv=0.22,kW=1.00918,pf=0.92,Vminpu=0.92,Vmaxpu=1.5,model=1,daily=RES2_2,status=variable
new load.3000082432M1 bus1=RML1051491773.1.3.0,Phases=2,kv=0.22,kW=0.62984,pf=0.92,Vminpu=0.92,Vmaxpu=1.5,model=1,daily=RES2_2,status=variable
new load.3000082433M1 bus1=RML1051491689.1.2.0,Phases=2,kv=0.22,kW=0.42944,pf=0.92,Vminpu=0.92,Vmaxpu=1.5,model=1,daily=RES2_2,status=variable
new load.3000082434M1 bus1=RML1051491703.1.2.0,Phases=2,kv=0.22,kW=1.36706,pf=0.92,Vminpu=0.92,Vmaxpu=1.5,model=1,daily=RES2_2,status=variable
new load.3000082435M1 bus1=RML1051491717.3.0,Phases=1,kv=0.127,kW=2.40526,pf=0.92,Vminpu=0.92,Vmaxpu=1.5,model=1,daily=RES5_3,status=variable
new load.3000082437M1 bus1=RML1051491738.2.0,Phases=1,kv=0.127,kW=0.90182,pf=0.92,Vminpu=0.92,Vmaxpu=1.5,model=1,daily=RES2_2,status=variable
new load.3000082438M1 bus1=RML1051491724.2.0,Phases=1,kv=0.127,kW=1.80006,pf=0.92,Vminpu=0.92,Vmaxpu=1.5,model=1,daily=RES3_2,status=variable
new load.3000082439M1 bus1=RML1051491710.1.0,Phases=1,kv=0.127,kW=2.93508,pf=0.92,Vminpu=0.92,Vmaxpu=1.5,model=1,daily=RES4_3,status=variable
new load.3000082440M1 bus1=RML1051491696.1.0,Phases=1,kv=0.127,kW=1.28832,pf=0.92,Vminpu=0.92,Vmaxpu=1.5,model=1,daily=RES2_2,status=variable
new load.3000082441M1 bus1=RML1051491766.1.0,Phases=1,kv=0.127,kW=1.1738,pf=0.92,Vminpu=0.92,Vmaxpu=1.5,model=1,daily=RES2_2,status=variable
new load.3000082442M1 bus1=RML1051491780.1.0,Phases=1,kv=0.127,kW=1.1094,pf=0.92,Vminpu=0.92,Vmaxpu=1.5,model=1,daily=RES2_2,status=variable
new load.3000082443M1 bus1=RML1051491787.2.0,Phases=1,kv=0.127,kW=0.92508,pf=0.92,Vminpu=0.92,Vmaxpu=1.5,model=1,daily=RES1_1,status=variable
new load.3000082444M1 bus1=RML1051491801.2.0,Phases=1,kv=0.127,kW=0.2628,pf=0.92,Vminpu=0.92,Vmaxpu=1.5,model=1,daily=RES1_1,status=variable
new load.3000082445M1 bus1=RML1051491815.2.0,Phases=1,kv=0.127,kW=0.99488,pf=0.92,Vminpu=0.92,Vmaxpu=1.5,model=1,daily=RES2_2,status=variable
new load.3000082446M1 bus1=RML1051491892.3.0,Phases=1,kv=0.127,kW=1.03782,pf=0.92,Vminpu=0.92,Vmaxpu=1.5,model=1,daily=RES2_2,status=variable
new load.3000082447M1 bus1=RML1051491878.1.2.0,Phases=2,kv=0.22,kW=1.1237,pf=0.92,Vminpu=0.92,Vmaxpu=1.5,model=1,daily=RES2_2,status=variable
new load.3000082448M1 bus1=RML1051491864.2.0,Phases=1,kv=0.127,kW=0.773,pf=0.92,Vminpu=0.92,Vmaxpu=1.5,model=1,daily=RES2_2,status=variable
new load.3000082449M1 bus1=RML1051491962.1.0,Phases=1,kv=0.127,kW=1.15234,pf=0.92,Vminpu=0.92,Vmaxpu=1.5,model=1,daily=RES2_2,status=variable
new load.3000082451M1 bus1=RML1051490352.3.0,Phases=1,kv=0.127,kW=1.08076,pf=0.92,Vminpu=0.92,Vmaxpu=1.5,model=1,daily=RES2_2,status=variable
new load.3000082452M1 bus1=RML1051490338.3.0,Phases=1,kv=0.127,kW=0.93762,pf=0.92,Vminpu=0.92,Vmaxpu=1.5,model=1,daily=RES2_2,status=variable
new load.3000082454M1 bus1=RML1051490317.1.0,Phases=1,kv=0.127,kW=1.2597,pf=0.92,Vminpu=0.92,Vmaxpu=1.5,model=1,daily=RES2_2,status=variable
new load.3000082455M1 bus1=RML1051490324.3.0,Phases=1,kv=0.127,kW=1.14518,pf=0.92,Vminpu=0.92,Vmaxpu=1.5,model=1,daily=RES2_2,status=variable
new load.3000082456M1 bus1=RML1051490331.3.0,Phases=1,kv=0.127,kW=0.7674,pf=0.92,Vminpu=0.92,Vmaxpu=1.5,model=1,daily=RES1_1,status=variable
new load.3000082457M1 bus1=RML1051490289.2.0,Phases=1,kv=0.127,kW=2.4418,pf=0.92,Vminpu=0.92,Vmaxpu=1.5,model=1,daily=RES3_2,status=variable
new load.3000082458M1 bus1=RML1051490296.2.0,Phases=1,kv=0.127,kW=0.89354,pf=0.92,Vminpu=0.92,Vmaxpu=1.5,model=1,daily=RES1_1,status=variable
new load.3000082460M1 bus1=RML1051490268.1.2.0,Phases=2,kv=0.22,kW=0.7372,pf=0.92,Vminpu=0.92,Vmaxpu=1.5,model=1,daily=RES2_2,status=variable
new load.3000082461M1 bus1=RML1051490282.3.0,Phases=1,kv=0.127,kW=1.6357,pf=0.92,Vminpu=0.92,Vmaxpu=1.5,model=1,daily=RES3_2,status=variable
new load.3000082462M1 bus1=RML1051490275.3.0,Phases=1,kv=0.127,kW=0.89468,pf=0.92,Vminpu=0.92,Vmaxpu=1.5,model=1,daily=RES2_2,status=variable
new load.3000082463M1 bus1=RML1051490303.1.0,Phases=1,kv=0.127,kW=1.487,pf=0.92,Vminpu=0.92,Vmaxpu=1.5,model=1,daily=RES3_2,status=variable
new load.3000082464M1 bus1=RML1051490359.2.0,Phases=1,kv=0.127,kW=0.23384,pf=0.92,Vminpu=0.92,Vmaxpu=1.5,model=1,daily=RES5_3,status=variable
new load.3000082465M1 bus1=RML1051490345.2.0,Phases=1,kv=0.127,kW=3.4507,pf=0.92,Vminpu=0.92,Vmaxpu=1.5,model=1,daily=RES4_3,status=variable
new load.3000082466M1 bus1=RML1051490373.1.3.0,Phases=2,kv=0.22,kW=0.66564,pf=0.92,Vminpu=0.92,Vmaxpu=1.5,model=1,daily=RES2_2,status=variable
new load.3000082467M1 bus1=RML1051490380.1.3.0,Phases=2,kv=0.22,kW=0.8231,pf=0.92,Vminpu=0.92,Vmaxpu=1.5,model=1,daily=RES2_2,status=variable
new load.3000082468M1 bus1=RML1051490408.1.3.0,Phases=2,kv=0.22,kW=1.32412,pf=0.92,Vminpu=0.92,Vmaxpu=1.5,model=1,daily=RES2_2,status=variable
new load.3000082469M1 bus1=RML1051490401.3.0,Phases=1,kv=0.127,kW=0.78016,pf=0.92,Vminpu=0.92,Vmaxpu=1.5,model=1,daily=RES2_2,status=variable
new load.3000082471M1 bus1=RML1051490387.2.0,Phases=1,kv=0.127,kW=0.95908,pf=0.92,Vminpu=0.92,Vmaxpu=1.5,model=1,daily=RES2_2,status=variable
new load.3000082472M1 bus1=RML1051490422.1.0,Phases=1,kv=0.127,kW=1.09508,pf=0.92,Vminpu=0.92,Vmaxpu=1.5,model=1,daily=RES2_2,status=variable
new load.3000082473M1 bus1=RML1051490415.1.0,Phases=1,kv=0.127,kW=1.64352,pf=0.92,Vminpu=0.92,Vmaxpu=1.5,model=1,daily=RES3_2,status=variable
new load.3000082474M1 bus1=RML1060218834.2.0,Phases=1,kv=0.127,kW=1.10224,pf=0.92,Vminpu=0.92,Vmaxpu=1.5,model=1,daily=RES2_2,status=variable
new load.3000082475M1 bus1=RML1051490436.2.0,Phases=1,kv=0.127,kW=0.81594,pf=0.92,Vminpu=0.92,Vmaxpu=1.5,model=1,daily=RES2_2,status=variable
new load.3000082476M1 bus1=RML1051490443.3.0,Phases=1,kv=0.127,kW=0.50818,pf=0.92,Vminpu=0.92,Vmaxpu=1.5,model=1,daily=RES2_2,status=variable
new load.3000082478M1 bus1=RML1051490478.1.2.3.0,Phases=3,kv=0.22,kW=0.95908,pf=0.92,Vminpu=0.92,Vmaxpu=1.5,model=1,daily=RES2_2,status=variable
new load.3000082479M1 bus1=RML1051490471.2.3.0,Phases=2,kv=0.22,kW=0.5992,pf=0.92,Vminpu=0.92,Vmaxpu=1.5,model=1,daily=RES1_1,status=variable
new load.3000082481M1 bus1=RML1051490457.2.0,Phases=1,kv=0.127,kW=1.13086,pf=0.92,Vminpu=0.92,Vmaxpu=1.5,model=1,daily=RES2_2,status=variable
new load.3000082482M1 bus1=RML1051492767.2.0,Phases=1,kv=0.127,kW=0.65132,pf=0.92,Vminpu=0.92,Vmaxpu=1.5,model=1,daily=RES2_2,status=variable
new load.3000082484M1 bus1=RML1051492788.1.0,Phases=1,kv=0.127,kW=2.17572,pf=0.92,Vminpu=0.92,Vmaxpu=1.5,model=1,daily=RES3_2,status=variable
new load.3000082485M1 bus1=RML1051492795.1.2.0,Phases=2,kv=0.22,kW=1.98788,pf=0.92,Vminpu=0.92,Vmaxpu=1.5,model=1,daily=RES3_2,status=variable
new load.3000082486M1 bus1=RML1051491339.1.2.3.0,Phases=3,kv=0.22,kW=6.19096,pf=0.92,Vminpu=0.92,Vmaxpu=1.5,model=1,daily=COM3_2,status=variable
new load.3000082487M1 bus1=RML1051491346.2.3.0,Phases=2,kv=0.22,kW=1.35396,pf=0.92,Vminpu=0.92,Vmaxpu=1.5,model=1,daily=RES3_2,status=variable
new load.3000082488M1 bus1=RML1051491311.1.2.0,Phases=2,kv=0.22,kW=1.4959,pf=0.92,Vminpu=0.92,Vmaxpu=1.5,model=1,daily=RES2_2,status=variable
new load.3000082489M1 bus1=RML1051491297.3.0,Phases=1,kv=0.127,kW=1.80788,pf=0.92,Vminpu=0.92,Vmaxpu=1.5,model=1,daily=RES3_2,status=variable
new load.3000082490M1 bus1=RML1051491290.2.0,Phases=1,kv=0.127,kW=0.6097,pf=0.92,Vminpu=0.92,Vmaxpu=1.5,model=1,daily=RES1_1,status=variable
new load.3000082491M1 bus1=RML1051491283.2.0,Phases=1,kv=0.127,kW=0.65132,pf=0.92,Vminpu=0.92,Vmaxpu=1.5,model=1,daily=RES2_2,status=variable
new load.3000082492M1 bus1=RML1051491262.1.2.0,Phases=2,kv=0.22,kW=1.47134,pf=0.92,Vminpu=0.92,Vmaxpu=1.5,model=1,daily=RES3_2,status=variable
new load.3000082493M1 bus1=RML1051491255.1.0,Phases=1,kv=0.127,kW=0.85888,pf=0.92,Vminpu=0.92,Vmaxpu=1.5,model=1,daily=RES2_2,status=variable
new load.3000082494M1 bus1=RML1051491213.2.3.0,Phases=2,kv=0.22,kW=1.1738,pf=0.92,Vminpu=0.92,Vmaxpu=1.5,model=1,daily=RES2_2,status=variable
new load.3000082495M1 bus1=RML1051491220.3.0,Phases=1,kv=0.127,kW=0.41512,pf=0.92,Vminpu=0.92,Vmaxpu=1.5,model=1,daily=RES2_2,status=variable
new load.3000082496M1 bus1=RML1051491234.2.0,Phases=1,kv=0.127,kW=1.2096,pf=0.92,Vminpu=0.92,Vmaxpu=1.5,model=1,daily=RES2_2,status=variable
new load.3000082497M1 bus1=RML1051491241.2.0,Phases=1,kv=0.127,kW=0.94478,pf=0.92,Vminpu=0.92,Vmaxpu=1.5,model=1,daily=RES2_2,status=variable
new load.3000082498M1 bus1=RML1051491178.3.0,Phases=1,kv=0.127,kW=0.25826,pf=0.92,Vminpu=0.92,Vmaxpu=1.5,model=1,daily=RES3_2,status=variable
new load.3000082499M1 bus1=RML1051491192.3.0,Phases=1,kv=0.127,kW=2.38702,pf=0.92,Vminpu=0.92,Vmaxpu=1.5,model=1,daily=RES3_2,status=variable
new load.3000082501M1 bus1=RML1051491185.1.0,Phases=1,kv=0.127,kW=0.90182,pf=0.92,Vminpu=0.92,Vmaxpu=1.5,model=1,daily=RES2_2,status=variable
new load.3000082503M1 bus1=RML1051491199.2.0,Phases=1,kv=0.127,kW=1.82354,pf=0.92,Vminpu=0.92,Vmaxpu=1.5,model=1,daily=RES3_2,status=variable
new load.3000082504M1 bus1=RML1059118985.2.0,Phases=1,kv=0.127,kW=0.74436,pf=0.92,Vminpu=0.92,Vmaxpu=1.5,model=1,daily=RES2_2,status=variable
new load.3000082505M1 bus1=RML1051491206.1.0,Phases=1,kv=0.127,kW=2.5279,pf=0.92,Vminpu=0.92,Vmaxpu=1.5,model=1,daily=RES3_2,status=variable
new load.3000082506M1 bus1=RML1051491269.3.0,Phases=1,kv=0.127,kW=1.1237,pf=0.92,Vminpu=0.92,Vmaxpu=1.5,model=1,daily=RES2_2,status=variable
new load.3000082508M1 bus1=RML1051491276.2.0,Phases=1,kv=0.127,kW=1.11654,pf=0.92,Vminpu=0.92,Vmaxpu=1.5,model=1,daily=RES2_2,status=variable
new load.3000082509M1 bus1=RML1060339894.1.2.0,Phases=2,kv=0.22,kW=1.18096,pf=0.92,Vminpu=0.92,Vmaxpu=1.5,model=1,daily=RES2_2,status=variable
new load.3000082510M1 bus1=RML1051491318.1.0,Phases=1,kv=0.127,kW=0.56766,pf=0.92,Vminpu=0.92,Vmaxpu=1.5,model=1,daily=RES1_1,status=variable
new load.3000082511M1 bus1=RML1051491052.1.2.3.0,Phases=3,kv=0.22,kW=2.27192,pf=0.92,Vminpu=0.92,Vmaxpu=1.5,model=1,daily=COM3_2,status=variable
new load.3000082513M1 bus1=RML1060575981.1.2.3.0,Phases=3,kv=0.22,kW=2.47498,pf=0.92,Vminpu=0.92,Vmaxpu=1.5,model=1,daily=RES4_3,status=variable
new load.3000082515M1 bus1=RML1060485333.2.3.0,Phases=2,kv=0.22,kW=0.5256,pf=0.92,Vminpu=0.92,Vmaxpu=1.5,model=1,daily=RES1_1,status=variable
new load.3000082516M1 bus1=RML1051492452.1.3.0,Phases=2,kv=0.22,kW=0.36534,pf=0.92,Vminpu=0.92,Vmaxpu=1.5,model=1,daily=COM1_4,status=variable
new load.3000082517M1 bus1=RML1051492445.2.3.0,Phases=2,kv=0.22,kW=0.60122,pf=0.92,Vminpu=0.92,Vmaxpu=1.5,model=1,daily=RES2_2,status=variable
new load.3000082518M1 bus1=RML1051490002.2.3.0,Phases=2,kv=0.22,kW=1.29548,pf=0.92,Vminpu=0.92,Vmaxpu=1.5,model=1,daily=RES2_2,status=variable
new load.3000082519M1 bus1=RML1051489988.1.2.0,Phases=2,kv=0.22,kW=1.3599,pf=0.92,Vminpu=0.92,Vmaxpu=1.5,model=1,daily=RES2_2,status=variable
new load.3000082520M1 bus1=RML1051489981.1.0,Phases=1,kv=0.127,kW=0.99488,pf=0.92,Vminpu=0.92,Vmaxpu=1.5,model=1,daily=RES2_2,status=variable
new load.3000082521M1 bus1=RML1051489974.2.3.0,Phases=2,kv=0.22,kW=3.28412,pf=0.92,Vminpu=0.92,Vmaxpu=1.5,model=1,daily=RES4_3,status=variable
new load.3000082522M1 bus1=RML1051489960.1.2.0,Phases=2,kv=0.22,kW=1.33128,pf=0.92,Vminpu=0.92,Vmaxpu=1.5,model=1,daily=RES2_2,status=variable
new load.3000082523M1 bus1=RML1051489904.1.2.3.0,Phases=3,kv=0.22,kW=3.32378,pf=0.92,Vminpu=0.92,Vmaxpu=1.5,model=1,daily=RES4_3,status=variable
new load.3000082524M1 bus1=RML1051489897.1.2.3.0,Phases=3,kv=0.22,kW=2.3798,pf=0.92,Vminpu=0.92,Vmaxpu=1.5,model=1,daily=RES4_3,status=variable
new load.3000082525M1 bus1=RML1051489169.2.0,Phases=1,kv=0.127,kW=0.56766,pf=0.92,Vminpu=0.92,Vmaxpu=1.5,model=1,daily=RES1_1,status=variable
new load.3000082526M1 bus1=RML1051489176.1.3.0,Phases=2,kv=0.22,kW=0.79446,pf=0.92,Vminpu=0.92,Vmaxpu=1.5,model=1,daily=RES2_2,status=variable
new load.3000082528M1 bus1=RML1051489183.1.2.3.0,Phases=3,kv=0.22,kW=2.17978,pf=0.92,Vminpu=0.92,Vmaxpu=1.5,model=1,daily=RES5_3,status=variable
new load.3000082529M1 bus1=RML1051489134.2.0,Phases=1,kv=0.127,kW=2.3479,pf=0.92,Vminpu=0.92,Vmaxpu=1.5,model=1,daily=RES3_2,status=variable
new load.3000082530M1 bus1=RML1051489127.1.2.3.0,Phases=3,kv=0.22,kW=2.33846,pf=0.92,Vminpu=0.92,Vmaxpu=1.5,model=1,daily=RES5_3,status=variable
new load.3000082531M1 bus1=RML1051649119.1.3.0,Phases=2,kv=0.22,kW=1.3599,pf=0.92,Vminpu=0.92,Vmaxpu=1.5,model=1,daily=RES2_2,status=variable
new load.3000082532M1 bus1=RML1051649126.1.2.3.0,Phases=3,kv=0.22,kW=2.3479,pf=0.92,Vminpu=0.92,Vmaxpu=1.5,model=1,daily=RES3_2,status=variable
new load.3000082533M1 bus1=RML1051649105.1.0,Phases=1,kv=0.127,kW=1.10224,pf=0.92,Vminpu=0.92,Vmaxpu=1.5,model=1,daily=RES2_2,status=variable
new load.3000082534M1 bus1=RML1051649112.2.0,Phases=1,kv=0.127,kW=1.53884,pf=0.92,Vminpu=0.92,Vmaxpu=1.5,model=1,daily=RES2_2,status=variable
new load.3000082535M1 bus1=RML1051489239.1.0,Phases=1,kv=0.127,kW=1.24538,pf=0.92,Vminpu=0.92,Vmaxpu=1.5,model=1,daily=RES2_2,status=variable
new load.3000082537M1 bus1=RML1051489246.1.2.0,Phases=2,kv=0.22,kW=1.1738,pf=0.92,Vminpu=0.92,Vmaxpu=1.5,model=1,daily=RES2_2,status=variable
new load.3000082538M1 bus1=RML1051489232.1.0,Phases=1,kv=0.127,kW=0.9461,pf=0.92,Vminpu=0.92,Vmaxpu=1.5,model=1,daily=RES1_1,status=variable
new load.3000082539M1 bus1=RML1051489253.2.3.0,Phases=2,kv=0.22,kW=0.93762,pf=0.92,Vminpu=0.92,Vmaxpu=1.5,model=1,daily=RES2_2,status=variable
new load.3000082541M1 bus1=RML1051489281.1.0,Phases=1,kv=0.127,kW=2.85576,pf=0.92,Vminpu=0.92,Vmaxpu=1.5,model=1,daily=RES4_3,status=variable
new load.3000082542M1 bus1=RML1051648419.2.3.0,Phases=2,kv=0.22,kW=0.93046,pf=0.92,Vminpu=0.92,Vmaxpu=1.5,model=1,daily=RES2_2,status=variable
new load.3000082543M1 bus1=RML1051648412.1.0,Phases=1,kv=0.127,kW=0.37934,pf=0.92,Vminpu=0.92,Vmaxpu=1.5,model=1,daily=RES2_2,status=variable
new load.3000082544M1 bus1=RML1051648426.1.2.0,Phases=2,kv=0.22,kW=1.82354,pf=0.92,Vminpu=0.92,Vmaxpu=1.5,model=1,daily=RES3_2,status=variable
...
